! Users should add all user specific namelist changes below in the form of 
! namelist_var = new_namelist_value 
!------------------------------------------------------------------------
! The namelist settings for TaiESM are
!  deep_scheme = 'ZMMOD'
!  macrop_scheme = 'tpdf'
!
! Other options include
!  deep_scheme = 'SAS'
!  eddy_scheme = 'HBGFS'
!  shallow_scheme = 'HP'
!  macrop_scheme = 'updf'
!------------------------------------------------------------------------

  mfilt   = 1,30,120,240
  nhtfrq  = 0,-24,1,-3
  deep_scheme   = 'ZMMOD'
  macrop_scheme = 'tpdf'
  fincl1  = 'PRECC','PRECL','PSL',
  fincl2  = 'PS','T','Q','PRECT','Nudge_U','Nudge_V','Nudge_T','Nudge_Q'
  ncdata  = '/chia_cluster/data/ccsm4/inputdata/atm/cam/inic/fv/cami-mam3_0000-01-01_0.9x1.25_L30_c100618.nc' 
  inithist= 'DAILY'
  inithist_all = .true.

!======================================================
!    &nudging_nl
!      Nudge_Model         - LOGICAL toggle to activate nudging.
!      Nudge_Path          - CHAR path to the analyses files.
!      Nudge_File_Template - CHAR Analyses filename with year, month, day, and second
!                                 values replaced by %y, %m, %d, and %s respectively.
!      Nudge_Times_Per_Day - INT Number of analyses files available per day.
!      Model_Times_Per_Day - INT Number of times to update the model state (used for nudging)
!                                each day. The value is restricted to be longer than the
!                                current model timestep and shorter than the analyses
!                                timestep. As this number is increased, the nudging
!                                force has the form of newtonian cooling.
!      Nudge_Uprof         - INT index of profile structure to use for U.  [0=OFF,1=ON,2=WINDOW]
!      Nudge_Vprof         - INT index of profile structure to use for V.  [0=OFF,1=ON,2=WINDOW]
!      Nudge_Tprof         - INT index of profile structure to use for T.  [0=OFF,1=ON,2=WINDOW]
!      Nudge_Qprof         - INT index of profile structure to use for Q.  [0=OFF,1=ON,2=WINDOW]
!      Nudge_PSprof        - INT index of profile structure to use for PS. [0=OFF,N/A]
!      Nudge_Ucoef         - REAL fractional nudging coeffcient for U.
!                                    Utau=(Nudge_Ucoef/analyses_timestep)
!      Nudge_Vcoef         - REAL fractional nudging coeffcient for V.
!                                    Vtau=(Nudge_Vcoef/analyses_timestep)
!      Nudge_Tcoef         - REAL fractional nudging coeffcient for T.
!                                    Ttau=(Nudge_Tcoef/analyses_timestep)
!      Nudge_Qcoef         - REAL fractional nudging coeffcient for Q.
!                                    Qtau=(Nudge_Qcoef/analyses_timestep)
!      Nudge_PScoef        - REAL fractional nudging coeffcient for PS.
!                                    PStau=(Nudge_PScoef/analyses_timestep)
!      Nudge_Beg_Year      - INT nudging begining year.
!      Nudge_Beg_Month     - INT nudging begining month.
!      Nudge_Beg_Day       - INT nudging begining day.
!      Nudge_End_Year      - INT nudging ending year.
!      Nudge_End_Month     - INT nudging ending month.
!      Nudge_End_Day       - INT nudging ending day.
!      Nudge_Hwin_lo       - REAL value mapped to RAW horizontal window minimum. [0]
!      Nudge_Hwin_hi       - REAL value mapped to RAW horizontal window maximum. [1]
!      Nudge_Vwin_lo       - REAL value mapped to RAW vertical window minimum.   [0]
!      Nudge_Vwin_hi       - REAL value mapped to RAW vertical window maximum.   [1]
!      Nudge_Hwin_lat0     - REAL latitudinal center of window in degrees.
!      Nudge_Hwin_lon0     - REAL longitudinal center of window in degrees.
!      Nudge_Hwin_latWidth - REAL latitudinal width of window in degrees.
!      Nudge_Hwin_lonWidth - REAL longitudinal width of window in degrees.
!      Nudge_Hwin_latDelta - REAL latitudinal transition length of window in degrees.
!      Nudge_Hwin_lonDelta - REAL longitudinal transition length of window in degrees.
!      Nudge_Vwin_Lindex   - REAL LO model index of transition
!      Nudge_Vwin_Hindex   - REAL HI model index of transition
!      Nudge_Vwin_Ldelta   - REAL LO transition length
!      Nudge_Vwin_Hdelta   - REAL HI transition length
!    /
!======================================================
&nudging_nl
 Nudge_Model        =.true.
 Nudge_Path         ='/chia_cluster/home/ychwang/01-PROJ_CAUSE/DATA_NUDGING_ERAITM_NC3/'
 Nudge_File_Template='interim_fv_%y%m%d00_%y%m%d18_TQUSVS.nc.n3.nc'
 Nudge_Times_Per_Day=4
 Model_Times_Per_Day=48
 Nudge_Uprof  =1
 Nudge_Ucoef  =1.00
 Nudge_Vprof  =1
 Nudge_Vcoef  =1.00
 Nudge_Tprof  =0
 Nudge_Tcoef  =1.00
 Nudge_Qprof  =0
 Nudge_Qcoef  =1.00
 Nudge_PSprof =0
 Nudge_PScoef =0.00
 Nudge_Beg_Year =2011
 Nudge_Beg_Month=1
 Nudge_Beg_Day  =1
 Nudge_End_Year =2011
 Nudge_End_Month=8
 Nudge_End_Day  =31
 Nudge_Hwin_lo      =0.0
 Nudge_Hwin_hi      =1.0
 Nudge_Hwin_lat0    =0.0
 Nudge_Hwin_latWidth=9999.

